ROMS/TOMS Framework: May 3, 2013
===================

Copyright (c) 2002-2013 The ROMS/TOMS Group
  Licensed under a MIT/X style license
  See License_ROMS.txt

svn: $HeadURL: https://www.myroms.org/svn/src/trunk/ROMS/Version $
svn: $LastChangedBy: arango $
svn: $LastChangedRevision: 662 $
svn: $LastChangedDate: 2013-05-04 00:39:23 +0900 (土, 04  5月 2013) $
